THERMOGENICS
HI
IM
AN
AVID
DIETER
AND
THE
NEW
MIRACLE
DRUG
SEEMS
TO
INVOLVE
THERMO
GENICS
THE
DRUG
IS
CLAIMED
TO
STIMULATE
THE
BROWN
FAT
TO
BURN
FOOD
CREATING
EAT
AS
OPPOSED
TO
THE
FAT
BEING
STORED
THERE
ARE
ALL
SORTS
OF
WARNINGS
ABOUT
FEVERS
ELEVATED
BLOOD
PRESSURE
AND
HEART
RATE
ECT
THE
SILVER
LINING
IS
THAT
APPARENTLY
SOME
WEIGHT
LOSS
DOES
NOT
REQUIRE
A
CHANGE
IN
DIET
IS
THIS
POSSIBLE
ARE
THE
PILLS
DANGEROUS
OR
JUST
HOAXES
KAREN
